Version 4
SHEET 1 1312 680
WIRE 640 -288 288 -288
WIRE 944 -288 640 -288
WIRE 1072 -288 944 -288
WIRE 1072 -256 1072 -288
WIRE 1072 -176 1072 -256
WIRE 288 -160 288 -288
WIRE 288 -160 192 -160
WIRE 640 -160 640 -288
WIRE 640 -160 544 -160
WIRE 944 -160 944 -288
WIRE 944 -160 848 -160
WIRE 64 -144 -32 -144
WIRE 416 -144 352 -144
WIRE 720 -144 672 -144
WIRE 272 -128 192 -128
WIRE 592 -128 544 -128
WIRE 672 -128 672 -144
WIRE 896 -128 848 -128
WIRE 352 -112 352 -144
WIRE 272 -16 272 -128
WIRE 272 -16 192 -16
WIRE 592 -16 592 -128
WIRE 592 -16 544 -16
WIRE 64 0 -32 0
WIRE 416 0 336 0
WIRE 896 0 896 -128
WIRE 896 0 848 0
WIRE 272 16 192 16
WIRE 592 16 544 16
WIRE 720 16 672 16
WIRE 896 32 848 32
WIRE 336 48 336 0
WIRE 672 48 672 16
WIRE 272 128 272 16
WIRE 272 128 192 128
WIRE 64 144 -32 144
WIRE 592 144 592 16
WIRE 592 144 544 144
WIRE 208 160 192 160
WIRE 416 160 352 160
WIRE 896 160 896 32
WIRE 896 160 848 160
WIRE 576 176 544 176
WIRE 720 176 672 176
WIRE 880 192 848 192
WIRE 208 208 208 160
WIRE 352 208 352 160
WIRE 672 208 672 176
WIRE 576 240 576 176
WIRE 880 240 880 192
WIRE -32 256 -32 224
FLAG 1072 -96 0
FLAG -32 256 0
FLAG 208 208 0
FLAG 576 240 0
FLAG 880 240 0
FLAG -32 80 0
FLAG -32 -64 0
FLAG 352 288 0
FLAG 336 128 0
FLAG 352 -32 0
FLAG 672 288 0
FLAG 672 128 0
FLAG 672 -48 0
FLAG 1072 -256 vout
SYMBOL LTspiceModel 128 144 R0
SYMATTR InstName X7
SYMBOL voltage -32 128 R0
WINDOW 123 0 0 Left 0
WINDOW 39 0 0 Left 0
SYMATTR InstName V7
SYMATTR Value {illu7}
SYMBOL current 1072 -176 R0
WINDOW 123 0 0 Left 0
WINDOW 39 24 108 Left 2
SYMATTR SpiceLine load
SYMATTR InstName I1
SYMATTR Value PULSE(0 10 0 1 1)
SYMBOL LTspiceModel 128 0 R0
SYMATTR InstName X4
SYMBOL LTspiceModel 128 -144 R0
SYMATTR InstName X1
SYMBOL LTspiceModel 480 160 R0
SYMATTR InstName X8
SYMBOL LTspiceModel 480 0 R0
SYMATTR InstName X5
SYMBOL LTspiceModel 480 -144 R0
SYMATTR InstName X2
SYMBOL LTspiceModel 784 176 R0
SYMATTR InstName X9
SYMBOL LTspiceModel 784 16 R0
SYMATTR InstName X6
SYMBOL LTspiceModel 784 -144 R0
SYMATTR InstName X3
SYMBOL voltage -32 -16 R0
WINDOW 123 0 0 Left 0
WINDOW 39 0 0 Left 0
SYMATTR InstName V4
SYMATTR Value {illu4}
SYMBOL voltage -32 -160 R0
WINDOW 123 0 0 Left 0
WINDOW 39 0 0 Left 0
SYMATTR InstName V1
SYMATTR Value {illu1}
SYMBOL voltage 352 192 R0
WINDOW 123 0 0 Left 0
WINDOW 39 0 0 Left 0
WINDOW 3 26 73 Left 2
SYMATTR InstName V8
SYMATTR Value {illu8}
SYMBOL voltage 336 32 R0
WINDOW 123 0 0 Left 0
WINDOW 39 0 0 Left 0
WINDOW 3 28 61 Left 2
SYMATTR InstName V5
SYMATTR Value {illu5}
SYMBOL voltage 352 -128 R0
WINDOW 123 0 0 Left 0
WINDOW 39 0 0 Left 0
WINDOW 3 36 53 Left 2
SYMATTR InstName V2
SYMATTR Value {illu2}
SYMBOL voltage 672 192 R0
WINDOW 123 0 0 Left 0
WINDOW 39 0 0 Left 0
WINDOW 3 28 70 Left 2
SYMATTR InstName V9
SYMATTR Value {illu9}
SYMBOL voltage 672 32 R0
WINDOW 123 0 0 Left 0
WINDOW 39 0 0 Left 0
WINDOW 3 29 64 Left 2
SYMATTR InstName V6
SYMATTR Value {illu6}
SYMBOL voltage 672 -144 R0
WINDOW 123 0 0 Left 0
WINDOW 39 0 0 Left 0
WINDOW 3 28 69 Left 2
SYMATTR InstName V3
SYMATTR Value {illu3}
TEXT -712 -256 Left 2 !.param voc 0.425\n.param isc 0.0013\n.param vmp 0.34\n.param imp 0.00114
TEXT -696 -120 Left 2 !.tran 1
TEXT -696 -96 Left 2 !.temp 25
TEXT -696 -48 Left 2 !.param illu1 700\n.param illu2 700\n.param illu3 700\n.param illu4 700\n.param illu5 700\n.param illu6 700\n.param illu7 700\n.param illu8 700\n.param illu9 700
